20250207/case30_modified.m
function mpc = case30_modified
%CASE30    Power flow data for 30 bus, 6 generator case.
%   Please see CASEFORMAT for details on the case file format.
%
%   Based on data from ...
%     Alsac, O. & Stott, B., "Optimal Load Flow with Steady State Security",
%     IEEE Transactions on Power Apparatus and Systems, Vol. PAS 93, No. 3,
%     1974, pp. 745-751.
%   ... with branch parameters rounded to nearest 0.01, shunt values divided
%   by 100 and shunt on bus 10 moved to bus 5, load at bus 5 zeroed out.
%   Generator locations, costs and limits and bus areas were taken from ...
%     Ferrero, R.W., Shahidehpour, S.M., Ramesh, V.C., "Transaction analysis
%     in deregulated power systems using game theory", IEEE Transactions on
%     Power Systems, Vol. 12, No. 3, Aug 1997, pp. 1340-1347.
%   Generator Q limits were derived from Alsac & Stott, using their Pmax
%   capacities. V limits and line |S| limits taken from Alsac & Stott.

%   MATPOWER

%% MATPOWER Case Format : Version 2
mpc.version = '2';

%%-----  Power Flow Data  -----%%
%% system MVA base
mpc.baseMVA = 100;

%% bus data
%	bus_i	type	Pd	Qd	Gs	Bs	area	Vm	Va	baseKV	zone	Vmax	Vmin
mpc.bus = [
	1	3	0	    0	    0	0	1	1	0	220	1	1.05	0.95;
	2	2	151.97	12.7	0	0	1	1	0	220	1	1.1	0.95;
	3	1	16.81	1.2	    0	0	1	1	0	220	1	1.05	0.95;
	4	1	53.22	1.6  	0	0	1	1	0	220	1	1.05	0.95;
	5	1	0	    0	    0	0.19	1	1	0	220	1	1.05	0.95;
	6	1	0	    0	    0	0	1	1	0	220	1	1.05	0.95;
	7	1	159.67	10.9	0	0	1	1	0	220	1	1.05	0.95;
	8	1	210.10	30	    0	0	1	1	0	220	1	1.05	0.95;
	9	1	0	    0	    0	0	1	1	0	220	1	1.05	0.95;
	10	1	40.62	2	    0	0	3	1	0	220	1	1.05	0.95;
	11	1	0	    0	    0	0	1	1	0	220	1	1.05	0.95;
	12	1	78.44	7.5	    0	0	2	1	0	220	1	1.05	0.95;
	13	2	0	    0	    0	0	2	1	0	220	1	1.1	0.95;
	14	1	43.42	1.6	    0	0	2	1	0	220	1	1.05	0.95;
	15	1	57.43	2.5	    0	0	2	1	0	220	1	1.05	0.95;
	16	1	24.51	1.8	    0	0	2	1	0	220	1	1.05	0.95;
	17	1	63.03	5.8	    0	0	2	1	0	220	1	1.05	0.95;
	18	1	22.41	0.9	    0	0	2	1	0	220	1	1.05	0.95;
	19	1	60.53	3.4  	0	0	2	1	0	220	1	1.05	0.95;
	20	1	15.41	0.7 	0	0	2	1	0	220	1	1.05	0.95;
	21	1	122.56	11.2	0	0	3	1	0	220	1	1.05	0.95;
	22	2	0	    0	    0	0	3	1	0	220	1	1.1	0.95;
	23	2	22.41	1.6  	0	0	2	1	0	220	1	1.1	0.95;
	24	1	60.93	6.7	    0	0.04	3	1	0	220	1	1.05	0.95;
	25	1	0	    0	    0	0	3	1	0	220	1	1.05	0.95;
	26	1	24.51	2.3    	0	0	3	1	0	220	1	1.05	0.95;
	27	2	0	    0	    0	0	3	1	0	220	1	1.1	0.95;
	28	1	0	    0	    0	0	1	1	0	220	1	1.05	0.95;
	29	1	16.81	0.9  	0	0	3	1	0	220	1	1.05	0.95;
	30	1	74.23	1.9	    0	0	3	1	0	220	1	1.05	0.95;
];

%% generator data
%	bus	Pg	Qg	Qmax	Qmin	Vg	mBase	status	Pmax	Pmin	Pc1	Pc2	Qc1min	Qc1max	Qc2min	Qc2max	ramp_agc	ramp_10	ramp_30	ramp_q	apf
mpc.gen = [
	1	280	0	200	-30	1.05	100	1	300	0	0	0	0	0	0	0	0	0	0	0	0;
	2	280	0	200	-30	1.05	100	1	300	0	0	0	0	0	0	0	0	0	0	0	0;
	22	280	0	200	-30	1.05	100	1	300	0	0	0	0	0	0	0	0	0	0	0	0;
	27	280	0	200	-30	1.05	100	1	300	0	0	0	0	0	0	0	0	0	0	0	0;
	23	205	0	200	-30	1.05	100	1	300	0	0	0	0	0	0	0	0	0	0	0	0;
	13	200	0	200	-30	1.05	100	1	300	0	0	0	0	0	0	0	0	0	0	0	0;
];

%% branch data
%	fbus	tbus	r	x	b	rateA	rateB	rateC	ratio	angle	status	angmin	angmax
mpc.branch = [
	1	2	0.02/(220/135)^2	0.06/(220/135)^2	0.03/(220/135)^2	300	300	300	0	0	1	-360	360;
	1	3	0.05/(220/135)^2	0.19/(220/135)^2	0.02/(220/135)^2	300	300	300	0	0	1	-360	360;
	2	4	0.06/(220/135)^2	0.17/(220/135)^2	0.02/(220/135)^2	300	300	300	0	0	1	-360	360;
	3	4	0.01/(220/135)^2	0.04/(220/135)^2	0	                300	300	300	0	0	1	-360	360;
	2	5	0.05/(220/135)^2	0.2/(220/135)^2	0.02/(220/135)^2	300	300	300	0	0	1	-360	360;
	2	6	0.06/(220/135)^2	0.18/(220/135)^2	0.02/(220/135)^2	300	300	300	0	0	1	-360	360;
	4	6	0.01/(220/135)^2	0.04/(220/135)^2	0	                300	300	300	0	0	1	-360	360;
	5	7	0.05/(220/135)^2	0.12/(220/135)^2	0.01/(220/135)^2	300	300	300	0	0	1	-360	360;
	6	7	0.03/(220/135)^2	0.08/(220/135)^2	0.01/(220/135)^2	300	300	300	0	0	1	-360	360;
	6	8	0.01/(220/135)^2	0.04/(220/135)^2	0	                300	300	300	0	0	1	-360	360;
	6	9	0	0.21/(220/135)	0	300	300	300	0	0	1	-360	360;
	6	10	0	0.56/(220/135)	0	300	300	300	0	0	1	-360	360;
	9	11	0	0.21/(220/135)	0	300	300	300	0	0	1	-360	360;
	9	10	0	0.11/(220/135)	0	300	300	300	0	0	1	-360	360;
	4	12	0	0.26/(220/135)	0	300	300	300	0	0	1	-360	360;
	12	13	0	0.14/(220/135)	0	300	300	300	0	0	1	-360	360;
	12	14	0.06/(220/135)^2	0.26/(220/135)^2	0	300	300	300	0	0	1	-360	360;
	12	15	0.04/(220/135)^2	0.13/(220/135)^2	0	300	300	300	0	0	1	-360	360;
	12	16	0.04/(220/135)^2	0.2/(220/135)^2	0	300	300	300	0	0	1	-360	360;
	14	15	0.06/(220/135)^2	0.2/(220/135)^2	0	300	300	300	0	0	1	-360	360;
	16	17	0.08/(220/135)^2	0.19/(220/135)^2	0	300	300	300	0	0	1	-360	360;
	15	18	0.11/(220/135)^2	0.22/(220/135)^2	0	300	300	300	0	0	1	-360	360;
	18	19	0.06/(220/135)^2	0.13/(220/135)^2	0	300	300	300	0	0	1	-360	360;
	19	20	0.03/(220/135)^2	0.07/(220/135)^2	0	300	300	300	0	0	1	-360	360;
	10	20	0.09/(220/135)^2	0.21/(220/135)^2	0	300	300	300	0	0	1	-360	360;
	10	17	0.03/(220/135)^2	0.08/(220/135)^2	0	300	300	300	0	0	1	-360	360;
	10	21	0.03/(220/135)^2	0.07/(220/135)^2	0	300	300	300	0	0	1	-360	360;
	10	22	0.07/(220/135)^2	0.15/(220/135)^2	0	300	300	300	0	0	1	-360	360;
	21	22	0.01/(220/135)^2	0.02/(220/135)^2	0	300	300	300	0	0	1	-360	360;
	15	23	0.06/(220/135)^2	0.2/(220/135)^2	0	300	300	300	0	0	1	-360	360;
	22	24	0.06/(220/135)^2	0.18/(220/135)^2	0	300	300	300	0	0	1	-360	360;
	23	24	0.05/(220/135)^2	0.27/(220/135)^2	0	300	300	300	0	0	1	-360	360;
	24	25	0.05/(220/135)^2	0.33/(220/135)^2	0	300	300	300	0	0	1	-360	360;
	25	26	0.25/(220/135)^2	0.38/(220/135)^2	0	300	300	300	0	0	1	-360	360;
	25	27	0.05/(220/135)^2	0.21/(220/135)^2	0	300	300	300	0	0	1	-360	360;
	28	27	0	                0.4/(220/135)^2	0	300	300	300	0	0	1	-360	360;
	27	29	0.05/(220/135)^2	0.42/(220/135)^2	0	300	300	300	0	0	1	-360	360;
	27	30	0.05/(220/135)^2	0.6/(220/135)^2	0	300	300	300	0	0	1	-360	360;
	29	30	0.05/(220/135)^2	0.45/(220/135)^2	0	300	300	300	0	0	1	-360	360;
	8	28	0.05/(220/135)^2	0.2/(220/135)^2	0.02/(220/135)^2	300	300	300	0	0	1	-360	360;
	6	28	0.02/(220/135)^2	0.06/(220/135)^2	0.01/(220/135)^2 300	300	300	0	0	1	-360	360;
];

%%-----  OPF Data  -----%%
%% generator cost data
%	1	startup	shutdown	n	x1	y1	...	xn	yn
%	2	startup	shutdown	n	c(n-1)	...	c0
mpc.gencost = [
	2	0	0	3	0.02	2	0;
	2	0	0	3	0.0175	1.75	0;
	2	0	0	3	0.0625	1	0;
	2	0	0	3	0.00834	3.25	0;
	2	0	0	3	0.025	3	0;
	2	0	0	3	0.025	3	0;
];
